 DA74462       1   181CD    3039B6698493
      1C      3D8F4C29903FD00CA3
EA9D0BF83FD2E3C78959986A3FE4395A9E6EF9383FD031FE32CD2C063FEAC401
FA1E2D4C3FE354949208B2243FC2E0F297650D5A3FEFE78AC861A4343FC41F51
34B6F2003F8B669BC67535E03FDA8FE05475EA533FE4DFA18BDB6E663FE8A9B3
C9CB74983FE40510AF6E4D2C3FD7971C 9DD5BC03F897BC7248105063FDB2CE0
8F75D5393FEDD3D1AE358B903FCB11DD1332D3C13FE9DD83B05F2B403FAE4CC2
 C0F46303FE47E269CF866923FD4D08156C57A2C3FC9FB77 8FE08D03FD8F669
FE75C3083FB64CD1 BF23A903FE5BA7E9DD72D163FE38AF34A1D60BA3FEB1034
7853FB783FD97C69D531BB003F61691F5E75120C3FEA790D286276643FE4D91D
A1D78E803FA7C5D2BB0018843FDA264BCAB7C4A83FC95DFDC09AD37B3FE03996
ACBEA0C63FD68241644324C83FB2989A71A8562C3FD13460F6F75B723FDBBAE1
F1F0E0FE3FDA0270D4F5E77E3FD0A634D3A4B02C3FD8FE7C33BF9A0B3FEDEBEB
BACF84A43FED08F27F610BF23FEE6910682902403FC68C22E5A034583FB9A850
EEDF69333FEA35AC759044003FB1C4754E468CAF3FE2556B  E719EC3FC068CA
B859A6683FC1E09D565A39D03FE4219290E2D4883FD46B2F6B0C83D33FE60E6F
10E8293C3FC292B6 B9348423FDF8B8843DD825D3FED52CE B964E733FE4E24E
891908B13FE7F1A79DB73C9F3FE8BAC48ACDD7EC3FC69E9A609A87CF3FE51BB7
6343F2DA3FDF8C96A711E7983FE3238B8BD7AE4B3FEA58D3C852D6103FD7D1FB
50964FF43FC16A38BFE982F03FBDFD02FB5704CD3FE72184DA6216C53FEB7528
D0D4055C3FE439BF9B54098F3FEAFA1B49E5B1F63FD97891AAE45B993FEE41AD
559603303FD45F95AFD58D5E3FD7C8F8A6D36BA23FDDB2C35FF330083FC0DB83
D77B72B93FE8DD8EFBF13F2B3FE7F83113E1DA283FD939D1  2C71B83FE57B71
EDEEDCCB3FE3D6ED26FF6FEC3FE496123F83C8473FEB3846EC133A503FA39C76
344802E63FE24D6D4CA384723FDA5D4389E23D503FB8D0616FC95E2A3FEEA75A
6044060E3FD8D951ECD627483FD040E12455FB503FBBC13E85B7E2183FEFCC04
6277A6573FED6A1D
